Version 4
SHEET 1 2424 1084
WIRE -1040 -128 -1104 -128
WIRE -928 -128 -1040 -128
WIRE -672 -128 -784 -128
WIRE 896 -112 -144 -112
WIRE -336 -48 -432 -48
WIRE -144 -48 -144 -112
WIRE -144 -48 -336 -48
WIRE -112 -48 -144 -48
WIRE -32 -48 -112 -48
WIRE 32 -48 -32 -48
WIRE 160 -48 128 -48
WIRE 304 -48 256 -48
WIRE 448 -48 304 -48
WIRE 544 -48 448 -48
WIRE -928 -32 -928 -48
WIRE 448 -32 448 -48
WIRE 544 -32 544 -48
WIRE 112 32 112 0
WIRE 144 32 112 32
WIRE 176 32 176 0
WIRE 176 32 144 32
WIRE 144 48 144 32
WIRE 448 64 448 32
WIRE 544 64 544 48
WIRE -112 80 -112 -48
WIRE -32 112 -32 -48
WIRE -16 112 -32 112
WIRE 304 112 304 -48
WIRE 304 112 288 112
WIRE 896 144 896 -112
WIRE 896 144 368 144
WIRE -112 176 -112 160
WIRE -16 176 -112 176
WIRE -1232 192 -1280 192
WIRE -1088 192 -1232 192
WIRE -720 192 -864 192
WIRE -720 208 -720 192
WIRE -336 208 -336 -48
WIRE -1280 240 -1280 192
WIRE -608 240 -608 224
WIRE -576 240 -608 240
WIRE -16 240 -144 240
WIRE 368 240 368 224
WIRE 368 240 288 240
WIRE -784 256 -864 256
WIRE -704 256 -784 256
WIRE -336 304 -336 288
WIRE -16 304 -336 304
WIRE -1280 320 -1280 304
WIRE -1168 320 -1280 320
WIRE -1088 320 -1168 320
WIRE -768 320 -864 320
WIRE -656 320 -688 320
WIRE -336 320 -336 304
WIRE -608 352 -608 336
WIRE -608 352 -688 352
WIRE -608 368 -608 352
WIRE 144 368 144 352
WIRE -688 384 -688 352
WIRE -336 416 -336 400
WIRE -688 496 -688 448
WIRE -608 496 -608 448
WIRE -608 496 -688 496
WIRE -608 560 -608 496
FLAG -336 -48 IN
FLAG 144 368 0
FLAG -928 -32 0
FLAG 448 64 0
FLAG 544 -48 OUT
FLAG 544 64 0
FLAG -336 416 0
FLAG -144 240 Delay
FLAG -672 -48 0
FLAG -720 208 0
FLAG -864 384 IN
FLAG -1280 400 0
FLAG -608 560 0
FLAG -608 144 IN
FLAG -576 240 Delay
FLAG -1168 320 TRIG
FLAG -784 256 TRIG
FLAG -1232 192 IN
FLAG -1040 -128 IN
SYMBOL res -128 176 M180
WINDOW 0 36 76 Left 2
WINDOW 3 36 40 Left 2
SYMATTR InstName R1
SYMATTR Value 510K
SYMBOL res -352 192 R0
SYMATTR InstName R4
SYMATTR Value 33k
SYMBOL nmos 32 0 R270
WINDOW 0 56 49 VTop 2
WINDOW 3 -16 67 VLeft 2
SYMATTR InstName Q1
SYMATTR Value Si4850EY
SYMBOL nmos 256 0 M270
WINDOW 0 53 50 VTop 2
WINDOW 3 -16 72 VLeft 2
SYMATTR InstName Q2
SYMATTR Value Si4850EY
SYMBOL cap 432 -32 R0
SYMATTR InstName C1
SYMATTR Value 47µ
SYMBOL SpecialFunctions\\LTC4365 144 272 R0
SYMATTR InstName U1
SYMBOL voltage -928 -144 R0
WINDOW 123 24 146 Left 2
WINDOW 39 24 125 Left 2
WINDOW 3 24 96 Invisible 2
SYMATTR Value PWL(0 0 0.1 5 13 5 15 20 20 5)
SYMATTR InstName V1
SYMBOL res 528 -48 R0
SYMATTR InstName Rload
SYMATTR Value 34
SYMBOL res 352 128 R0
SYMATTR InstName R5
SYMATTR Value 10K
SYMBOL res -352 304 R0
SYMATTR InstName R6
SYMATTR Value 1000
SYMBOL voltage -672 -144 R0
WINDOW 123 24 146 Left 2
WINDOW 39 24 125 Left 2
WINDOW 3 24 96 Invisible 2
SYMATTR Value SINE(12 5 10 15 0 0 100)
SYMATTR InstName V2
SYMBOL Misc\\NE555 -976 288 M0
SYMATTR InstName U3
SYMBOL cap -1264 240 M0
SYMATTR InstName C4
SYMATTR Value 10µ
SYMBOL res -1296 304 R0
SYMATTR InstName R3
SYMATTR Value 1000k
SYMBOL nmos -656 240 R0
WINDOW 3 56 72 Invisible 2
SYMATTR Value Si7336ADP
SYMATTR InstName M2
SYMBOL res -672 304 R90
WINDOW 0 0 56 VBottom 2
WINDOW 3 32 56 VTop 2
SYMATTR InstName R9
SYMATTR Value 10k
SYMBOL res -624 128 R0
SYMATTR InstName R11
SYMATTR Value 22k
SYMBOL res -624 352 R0
SYMATTR InstName R12
SYMATTR Value 1000
SYMBOL cap -704 384 R0
SYMATTR InstName C5
SYMATTR Value 47µ
TEXT 224 344 Left 0 !.tran 20 startup
TEXT 320 -200 Left 0 ;LTC4365 - UV, OV and Reverse Supply Protection Controller\nProtects 12V Automotive System from -30V to 30V Vin Faults\nInput: 12V     Output: 3.5V UV to 18V OV Protection
TEXT -648 1016 Left 0 ;Note:\n  If the simulation model is not found please update with the "Sync Release" command from the "Tools" menu.\n  It remains the customer's responsibility to verify proper and reliable operation in the actual application.\n  Component substitution and printed circuit board layout may significantly affect circuit performance or reliability\n  Contact your local sales representative for assistance. This circuit is distributed to customers only for use with LTC parts\n  Copyright © 2011 Linear Technology Inc. All rights reserved.
