Version 4
SHEET 1 2424 1084
WIRE -1056 -176 -1152 -176
WIRE -688 -128 -832 -128
WIRE -688 -112 -688 -128
WIRE 896 -112 -144 -112
WIRE -1104 -96 -1152 -96
WIRE -1056 -96 -1104 -96
WIRE -1152 -80 -1152 -96
WIRE -1152 -80 -1232 -80
WIRE -832 -80 -832 -128
WIRE -688 -64 -688 -112
WIRE -1104 -48 -1104 -96
WIRE -896 -48 -1024 -48
WIRE -336 -48 -432 -48
WIRE -144 -48 -144 -112
WIRE -144 -48 -336 -48
WIRE -32 -48 -144 -48
WIRE 32 -48 -32 -48
WIRE 160 -48 128 -48
WIRE 304 -48 256 -48
WIRE 448 -48 304 -48
WIRE 544 -48 448 -48
WIRE 544 -32 544 -48
WIRE -896 -16 -896 -48
WIRE 448 0 448 -48
WIRE 112 32 112 0
WIRE 144 32 112 32
WIRE 176 32 176 0
WIRE 176 32 144 32
WIRE 144 48 144 32
WIRE -112 64 -224 64
WIRE 544 64 544 48
WIRE -112 80 -112 64
WIRE 448 96 448 64
WIRE -32 112 -32 -48
WIRE -16 112 -32 112
WIRE 304 112 304 -48
WIRE 304 112 288 112
WIRE 896 144 896 -112
WIRE 896 144 368 144
WIRE -112 176 -112 160
WIRE -16 176 -112 176
WIRE -336 208 -336 -48
WIRE -1072 240 -1072 224
WIRE -1040 240 -1072 240
WIRE -16 240 -144 240
WIRE 368 240 368 224
WIRE 368 240 288 240
WIRE -336 304 -336 288
WIRE -16 304 -336 304
WIRE -336 320 -336 304
WIRE -1072 368 -1072 240
WIRE -928 368 -928 352
WIRE -928 368 -1072 368
WIRE 144 368 144 352
WIRE -1072 400 -1072 368
WIRE -928 400 -928 368
WIRE -336 416 -336 400
WIRE -1072 496 -1072 480
WIRE -928 496 -928 464
WIRE -928 496 -1072 496
WIRE -928 512 -928 496
WIRE -1072 544 -1072 496
FLAG -336 -48 IN
FLAG 144 368 0
FLAG 448 96 0
FLAG 544 -48 OUT
FLAG 544 64 0
FLAG -336 416 0
FLAG -1072 544 0
FLAG -1072 144 IN
FLAG -144 240 UV
FLAG -1040 240 UV
FLAG -688 16 0
FLAG -1104 -48 0
FLAG -896 64 0
FLAG -688 -112 IN
FLAG -224 144 0
SYMBOL res -128 176 M180
WINDOW 0 36 76 Left 2
WINDOW 3 36 40 Left 2
SYMATTR InstName R1
SYMATTR Value 510K
SYMBOL res -352 192 R0
SYMATTR InstName R4
SYMATTR Value 32k
SYMBOL nmos 32 0 R270
WINDOW 0 56 49 VTop 2
WINDOW 3 -16 67 VLeft 2
SYMATTR InstName Q1
SYMATTR Value Si4850EY
SYMBOL nmos 256 0 M270
WINDOW 0 53 50 VTop 2
WINDOW 3 -16 72 VLeft 2
SYMATTR InstName Q2
SYMATTR Value Si4850EY
SYMBOL cap 432 0 R0
SYMATTR InstName C1
SYMATTR Value 47µF
SYMBOL SpecialFunctions\\LTC4365 144 272 R0
SYMATTR InstName U1
SYMBOL voltage -1056 -192 R0
WINDOW 123 24 146 Left 2
WINDOW 39 24 125 Left 2
WINDOW 3 24 96 Invisible 2
SYMATTR Value SINE(12 3 11 1 0 0 1000)
SYMATTR InstName V1
SYMBOL res 528 -48 R0
SYMATTR InstName Rload
SYMATTR Value 34
SYMBOL res 352 128 R0
SYMATTR InstName R5
SYMATTR Value 10K
SYMBOL res -352 304 R0
SYMATTR InstName R6
SYMATTR Value 1000
SYMBOL res -1088 128 R0
SYMATTR InstName R10
SYMATTR Value 21k
SYMBOL res -1088 384 R0
SYMATTR InstName R2
SYMATTR Value 1k
SYMBOL voltage -688 -80 R0
WINDOW 123 24 146 Left 2
WINDOW 39 24 125 Left 2
WINDOW 3 24 96 Invisible 2
SYMATTR Value PWL(0 0 0.1 5 13 5 15 20 20 5)
SYMATTR InstName V2
SYMBOL cap -944 400 R0
SYMATTR InstName C2
SYMATTR Value 47µF
SYMBOL voltage -896 -32 R0
WINDOW 123 24 146 Left 2
WINDOW 39 24 125 Left 2
WINDOW 3 24 96 Invisible 2
SYMATTR Value PWL(0 0 0.1 16 2 16 2.05 5 2.1 16)
SYMATTR InstName V3
SYMBOL voltage -1232 -176 R0
WINDOW 123 24 146 Left 2
WINDOW 39 24 125 Left 2
WINDOW 3 24 96 Invisible 2
SYMATTR Value SINE(12 3 11 0.1 0 0 1000)
SYMATTR InstName V4
SYMBOL voltage -224 48 R0
WINDOW 123 24 146 Left 2
WINDOW 39 24 125 Left 2
WINDOW 3 24 96 Invisible 2
SYMATTR Value PWL(0 12 4 12 4.1 0 5 0 5.1 12)
SYMATTR InstName V5
TEXT 224 344 Left 0 !.tran 20 startup
TEXT 320 -200 Left 0 ;LTC4365 - UV, OV and Reverse Supply Protection Controller\nProtects 12V Automotive System from -30V to 30V Vin Faults\nInput: 12V     Output: 3.5V UV to 18V OV Protection
TEXT -648 1016 Left 0 ;Note:\n  If the simulation model is not found please update with the "Sync Release" command from the "Tools" menu.\n  It remains the customer's responsibility to verify proper and reliable operation in the actual application.\n  Component substitution and printed circuit board layout may significantly affect circuit performance or reliability\n  Contact your local sales representative for assistance. This circuit is distributed to customers only for use with LTC parts\n  Copyright © 2011 Linear Technology Inc. All rights reserved.
TEXT -1304 -216 Left 2 ;Use V1 to show oscillation Problem
TEXT -944 -152 Left 2 ;Use V2 for normal Operation limits
TEXT -832 432 Left 2 ;490-5784-1 8$ ish
