Version 4
SHEET 1 1064 1028
WIRE 800 -304 416 -304
WIRE 960 -304 880 -304
WIRE 976 -304 960 -304
WIRE -336 -128 -496 -128
WIRE -272 -128 -336 -128
WIRE -80 -128 -272 -128
WIRE 416 -128 416 -304
WIRE 416 -128 -80 -128
WIRE 512 -128 416 -128
WIRE 640 -128 608 -128
WIRE 784 -128 736 -128
WIRE 976 -128 976 -304
WIRE 976 -128 880 -128
WIRE -336 -112 -336 -128
WIRE -80 -112 -80 -128
WIRE -688 -96 -864 -96
WIRE 592 -48 592 -80
WIRE 624 -48 592 -48
WIRE 656 -48 656 -80
WIRE 656 -48 624 -48
WIRE -448 -16 -464 -16
WIRE -400 -16 -448 -16
WIRE -336 -16 -336 -32
WIRE -336 -16 -400 -16
WIRE -272 -16 -336 -16
WIRE -80 -16 -80 -32
WIRE -80 -16 -144 -16
WIRE -16 -16 -80 -16
WIRE 64 -16 -16 -16
WIRE -688 0 -688 -16
WIRE -400 16 -400 -16
WIRE -272 16 -272 -16
WIRE -144 16 -144 -16
WIRE 64 16 64 -16
WIRE 96 16 64 16
WIRE 416 16 416 -128
WIRE 416 16 352 16
WIRE -16 32 -16 -16
WIRE -800 80 -864 80
WIRE -688 80 -800 80
WIRE 64 96 32 96
WIRE 96 96 64 96
WIRE 624 96 624 -48
WIRE 624 96 352 96
WIRE -688 176 -688 160
WIRE -400 176 -400 96
WIRE -400 176 -512 176
WIRE -144 176 -144 96
WIRE -144 176 -400 176
WIRE 96 176 -144 176
WIRE 848 176 352 176
WIRE 944 176 848 176
WIRE 976 176 976 -128
WIRE 976 176 944 176
WIRE 848 208 848 176
WIRE 976 208 976 176
WIRE -16 256 -16 112
WIRE 96 256 -16 256
WIRE 800 256 800 -80
WIRE 800 256 352 256
WIRE -272 336 -272 96
WIRE 96 336 -272 336
WIRE 416 336 416 16
WIRE 416 336 352 336
WIRE 848 336 848 272
WIRE 976 336 976 288
FLAG 944 176 Vout
FLAG -688 0 0
FLAG 976 336 0
FLAG -272 -128 Vin
FLAG -448 -16 E2
FLAG 64 96 E2
FLAG -512 176 0
FLAG -688 176 0
FLAG -800 80 Vin
FLAG 960 -304 nFault
FLAG 848 336 0
SYMBOL voltage -688 -112 R0
WINDOW 123 24 146 Left 2
WINDOW 39 24 125 Left 2
WINDOW 3 24 96 Invisible 2
SYMATTR Value PWL(0 0 0.1 5.6 13 5.6 15 20 20 4)
SYMATTR InstName V1
SYMBOL res 960 192 R0
SYMATTR InstName Rload
SYMATTR Value 34
SYMBOL res -96 -128 R0
SYMATTR InstName R7
SYMATTR Value 100k
SYMBOL res -160 0 R0
SYMATTR InstName R8
SYMATTR Value 12.5k
SYMBOL res -32 16 R0
SYMATTR InstName R9
SYMATTR Value 120k
SYMBOL res -416 0 R0
SYMATTR InstName R10
SYMATTR Value 18.3k
SYMBOL res -288 0 R0
SYMATTR InstName R11
SYMATTR Value 133k
SYMBOL res -352 -128 R0
SYMATTR InstName R12
SYMATTR Value 221k
SYMBOL voltage -688 64 R0
WINDOW 123 24 146 Left 2
WINDOW 39 24 125 Left 2
WINDOW 3 24 96 Invisible 2
SYMATTR Value PWL(0 0 0.1 5.6 2 5.6 3 13 4 10.5 5 13 6 11.1 7 13 12 20 15 12)
SYMATTR InstName V2
SYMBOL pmos 512 -80 R270
SYMATTR InstName M2
SYMATTR Value Si7465DP
SYMBOL res 896 -320 R90
WINDOW 0 0 56 VBottom 2
WINDOW 3 32 56 VTop 2
SYMATTR InstName R1
SYMATTR Value 10k
SYMBOL pmos 736 -80 M270
SYMATTR InstName M3
SYMATTR Value Si7465DP
SYMBOL pmos 880 -80 M270
SYMATTR InstName M4
SYMATTR Value Si7465DP
SYMBOL cap 832 208 R0
SYMATTR InstName C1
SYMATTR Value 47µ
SYMBOL SpecialFunctions\\LTC4416 224 176 R0
SYMATTR InstName U1
TEXT -864 376 Left 2 !.tran 20
