Version 4
SHEET 1 2424 948
WIRE -896 -48 -1184 -48
WIRE -656 -48 -896 -48
WIRE -240 -48 -656 -48
WIRE -112 -48 -240 -48
WIRE -64 -48 -112 -48
WIRE -32 -48 -64 -48
WIRE 32 -48 -32 -48
WIRE 160 -48 128 -48
WIRE 304 -48 256 -48
WIRE 368 -48 304 -48
WIRE 448 -48 368 -48
WIRE 544 -48 448 -48
WIRE 448 -32 448 -48
WIRE 544 -32 544 -48
WIRE -896 -16 -896 -48
WIRE -896 -16 -1008 -16
WIRE 112 32 112 0
WIRE 144 32 112 32
WIRE 176 32 176 0
WIRE 176 32 144 32
WIRE 144 48 144 32
WIRE 448 64 448 32
WIRE 544 64 544 48
WIRE -112 80 -112 -48
WIRE -528 96 -560 96
WIRE -240 96 -240 -48
WIRE -240 96 -304 96
WIRE -896 112 -896 64
WIRE -560 112 -560 96
WIRE -32 112 -32 -48
WIRE -16 112 -32 112
WIRE 304 112 304 -48
WIRE 304 112 288 112
WIRE -1008 128 -1008 -16
WIRE -1008 144 -1088 144
WIRE -896 144 -896 112
WIRE -896 144 -960 144
WIRE -816 144 -816 112
WIRE -816 144 -864 144
WIRE 368 144 368 -48
WIRE -656 160 -656 -48
WIRE -624 160 -656 160
WIRE -528 160 -560 160
WIRE -864 176 -864 144
WIRE -112 176 -112 160
WIRE -16 176 -112 176
WIRE -1008 208 -1088 208
WIRE -64 208 -64 -48
WIRE -720 224 -768 224
WIRE -528 224 -720 224
WIRE -240 224 -304 224
WIRE -816 240 -864 240
WIRE -16 240 -160 240
WIRE 368 240 368 224
WIRE 368 240 288 240
WIRE -1008 256 -1008 224
WIRE -816 272 -816 240
WIRE -656 288 -656 160
WIRE -528 288 -656 288
WIRE -64 304 -64 288
WIRE -16 304 -64 304
WIRE -64 320 -64 304
WIRE -1008 352 -1008 336
WIRE -160 352 -160 240
WIRE -160 352 -1008 352
WIRE -560 368 -560 160
WIRE -272 368 -560 368
WIRE -240 368 -240 224
WIRE -240 368 -272 368
WIRE 144 368 144 352
WIRE -1184 416 -1184 -48
WIRE -64 416 -64 400
WIRE -1184 512 -1184 496
FLAG 144 368 0
FLAG -1184 512 0
FLAG 448 64 0
FLAG 544 -48 OUT
FLAG 544 64 0
FLAG -64 416 0
FLAG -272 448 0
FLAG -560 112 0
FLAG -720 304 0
FLAG -816 272 0
FLAG -1008 432 0
SYMBOL res -128 176 M180
WINDOW 0 36 76 Left 0
WINDOW 3 36 40 Left 0
SYMATTR InstName R1
SYMATTR Value 510K
SYMBOL res -1024 240 R0
SYMATTR InstName R2
SYMATTR Value 53818
SYMBOL res -80 192 R0
SYMATTR InstName R4
SYMATTR Value 33966.1
SYMBOL nmos 32 0 R270
WINDOW 0 56 49 VTop 0
WINDOW 3 -16 67 VLeft 0
SYMATTR InstName Q1
SYMATTR Value Si4850EY
SYMBOL nmos 256 0 M270
WINDOW 0 53 50 VTop 0
WINDOW 3 -16 72 VLeft 0
SYMATTR InstName Q2
SYMATTR Value Si4850EY
SYMBOL cap 432 -32 R0
SYMATTR InstName C1
SYMATTR Value 4.7µ
SYMBOL SpecialFunctions\\LTC4365 144 272 R0
SYMATTR InstName U1
SYMBOL voltage -1184 400 R0
WINDOW 123 24 146 Left 0
WINDOW 39 24 125 Left 0
SYMATTR Value PWL(0 0 10m 12 70m 12 80m -30 90m -30 100m 12 140m 12 150m 30 160m 30 170m 12 500m 12 530m -5 550m -5 580m 12 1000m 12 1010m 0 1020m 0 1030m 12 1700m 12 1710m 0 1720m 0 1730m 12 6 12 6100m 12 6110m 30 6120m 30 6130m 12 6990m 12 7 0 7010m 0 7020m 12)
SYMATTR InstName V1
SYMBOL res 528 -48 R0
SYMATTR InstName Rload
SYMATTR Value 34
SYMBOL res 352 128 R0
SYMATTR InstName R5
SYMATTR Value 10K
SYMBOL res -80 304 R0
SYMATTR InstName R6
SYMATTR Value 1000
SYMBOL Misc\\NE555 -416 192 R0
SYMATTR InstName U2
SYMBOL cap -560 144 R90
WINDOW 0 0 32 VBottom 2
WINDOW 3 32 32 VTop 2
SYMATTR InstName C2
SYMATTR Value 135µ
SYMBOL res -288 352 R0
SYMATTR InstName R7
SYMATTR Value 33K
SYMBOL nmos -768 144 M0
WINDOW 0 56 49 VTop 0
WINDOW 3 -16 67 VLeft 0
SYMATTR InstName Q3
SYMATTR Value Si4850EY
SYMBOL res -736 208 R0
SYMATTR InstName R8
SYMATTR Value 10K
SYMBOL res -800 96 R90
WINDOW 0 0 56 VBottom 2
WINDOW 3 32 56 VTop 2
SYMATTR InstName R9
SYMATTR Value 100
SYMBOL pmos4 -960 224 R180
SYMATTR InstName M2
SYMBOL res -912 -32 R0
SYMATTR InstName R10
SYMATTR Value 10K
SYMBOL res -1024 336 R0
SYMATTR InstName R3
SYMATTR Value 10K
SYMBOL diode -1072 208 R180
WINDOW 0 24 64 Left 2
WINDOW 3 24 0 Left 2
SYMATTR InstName D1
SYMBOL diode -848 240 R180
WINDOW 0 24 64 Left 2
WINDOW 3 24 0 Left 2
SYMATTR InstName D2
TEXT 352 336 Left 0 !.tran 10 startup
TEXT 160 -88 Bottom 0 ;LTC4365 - UV, OV and Reverse Supply Protection Controller\nProtects 12V Automotive System from -30V to 30V Vin Faults\nInput: 12V     Output: 3.5V UV to 18V OV Protection
TEXT -744 536 Left 0 ;Note:\n  If the simulation model is not found please update with the "Sync Release" command from the "Tools" menu.\n  It remains the customer's responsibility to verify proper and reliable operation in the actual application.\n  Component substitution and printed circuit board layout may significantly affect circuit performance or reliability\n  Contact your local sales representative for assistance. This circuit is distributed to customers only for use with LTC parts\n  Copyright © 2011 Linear Technology Inc. All rights reserved.
TEXT -936 384 Left 1 ;R2 and R3 are resistors to change UV level
TEXT -624 32 Left 1 ;Change C2 to modify delay
