Version 4
SHEET 1 2424 1084
WIRE -336 -48 -432 -48
WIRE -112 -48 -336 -48
WIRE -32 -48 -112 -48
WIRE 32 -48 -32 -48
WIRE 160 -48 128 -48
WIRE 304 -48 256 -48
WIRE 368 -48 304 -48
WIRE 448 -48 368 -48
WIRE 544 -48 448 -48
WIRE 448 -32 448 -48
WIRE 544 -32 544 -48
WIRE 112 32 112 0
WIRE 144 32 112 32
WIRE 176 32 176 0
WIRE 176 32 144 32
WIRE -432 48 -432 32
WIRE 144 48 144 32
WIRE 448 64 448 32
WIRE 544 64 544 48
WIRE -112 80 -112 -48
WIRE -144 96 -224 96
WIRE -224 112 -224 96
WIRE -32 112 -32 -48
WIRE -16 112 -32 112
WIRE 304 112 304 -48
WIRE 304 112 288 112
WIRE 368 144 368 -48
WIRE -1024 176 -1056 176
WIRE -864 176 -1024 176
WIRE -592 176 -640 176
WIRE -112 176 -112 160
WIRE -16 176 -112 176
WIRE -592 192 -592 176
WIRE -336 208 -336 -48
WIRE -224 208 -224 192
WIRE -1056 224 -1056 176
WIRE -608 240 -640 240
WIRE -576 240 -608 240
WIRE -144 240 -144 96
WIRE -16 240 -144 240
WIRE 368 240 368 224
WIRE 368 240 288 240
WIRE -1056 304 -1056 288
WIRE -912 304 -1056 304
WIRE -864 304 -912 304
WIRE -544 304 -560 304
WIRE -528 304 -544 304
WIRE -336 304 -336 288
WIRE -16 304 -336 304
WIRE -336 320 -336 304
WIRE 144 368 144 352
WIRE -336 416 -336 400
FLAG -336 -48 IN
FLAG 144 368 0
FLAG -432 48 0
FLAG -224 208 0
FLAG 448 64 0
FLAG 544 -48 OUT
FLAG 544 64 0
FLAG -336 416 0
FLAG -1024 176 IN
FLAG -592 192 0
FLAG -640 368 IN
FLAG -608 240 TRIG
FLAG -912 304 TRIG
FLAG -1056 384 0
FLAG -224 96 Delay
FLAG -544 304 Delay
SYMBOL res -128 176 M180
WINDOW 0 36 76 Left 2
WINDOW 3 36 40 Left 2
SYMATTR InstName R1
SYMATTR Value 510K
SYMBOL res -240 96 R0
SYMATTR InstName R3
SYMATTR Value 1000
SYMBOL res -352 192 R0
SYMATTR InstName R4
SYMATTR Value 32k
SYMBOL nmos 32 0 R270
WINDOW 0 56 49 VTop 2
WINDOW 3 -16 67 VLeft 2
SYMATTR InstName Q1
SYMATTR Value Si4850EY
SYMBOL nmos 256 0 M270
WINDOW 0 53 50 VTop 2
WINDOW 3 -16 72 VLeft 2
SYMATTR InstName Q2
SYMATTR Value Si4850EY
SYMBOL cap 432 -32 R0
SYMATTR InstName C1
SYMATTR Value 4.7µ
SYMBOL SpecialFunctions\\LTC4365 144 272 R0
SYMATTR InstName U1
SYMBOL voltage -432 -64 R0
WINDOW 123 24 146 Left 2
WINDOW 39 24 125 Left 2
WINDOW 3 24 96 Invisible 2
SYMATTR Value PWL(0 0 10m 12 70m 12 80m -30 90m -30 100m 12 140m 12 150m 30 160m 30 170m 12 500m 12 530m 12 550m 12 580m 12 1000m 12 1010m 12 1020m 12 1030m 12 1700m 12 1710m -10 1740m -10 1750m 12 8 12 8010m -30 8020m -30 8030m 12)
SYMATTR InstName V1
SYMBOL res 528 -48 R0
SYMATTR InstName Rload
SYMATTR Value 34
SYMBOL res 352 128 R0
SYMATTR InstName R5
SYMATTR Value 10K
SYMBOL res -352 304 R0
SYMATTR InstName R6
SYMATTR Value 1000
SYMBOL Misc\\NE555 -752 272 M0
SYMATTR InstName U2
SYMBOL cap -1040 224 M0
SYMATTR InstName C2
SYMATTR Value 135µ
SYMBOL res -1072 288 R0
SYMATTR InstName R8
SYMATTR Value 33k
SYMBOL res -544 288 R90
WINDOW 0 0 56 VBottom 2
WINDOW 3 32 56 VTop 2
SYMATTR InstName R7
SYMATTR Value 10k
TEXT 224 344 Left 0 !.tran 20 startup
TEXT 320 -200 Left 0 ;LTC4365 - UV, OV and Reverse Supply Protection Controller\nProtects 12V Automotive System from -30V to 30V Vin Faults\nInput: 12V     Output: 3.5V UV to 18V OV Protection
TEXT -648 1016 Left 0 ;Note:\n  If the simulation model is not found please update with the "Sync Release" command from the "Tools" menu.\n  It remains the customer's responsibility to verify proper and reliable operation in the actual application.\n  Component substitution and printed circuit board layout may significantly affect circuit performance or reliability\n  Contact your local sales representative for assistance. This circuit is distributed to customers only for use with LTC parts\n  Copyright © 2011 Linear Technology Inc. All rights reserved.
